<?xml version="1.0" encoding="UTF-8"?>

<routes>
    <!-- VTypes -->
    <vType id="DEFAULT_PEDTYPE" vClass="pedestrian"/>
    <vType id="IDM" maxSpeed="33.00" vClass="ignoring" carFollowModel="IDM"
           tau="1.25" s0="20" a="1.4" b="2.0" delta="4.0" />
    <vType id="LPleader" maxSpeed="33.00" vClass="ignoring" carFollowModel="IDM"
           tau="2.75" s0="100" a="1.23" b="3.2" delta="4.0"/>
    <!-- Vehicles, persons and containers (sorted by depart) -->
    <trip id="a" type="LPleader" depart="0.00" departPos="1000.00" departSpeed="20.00" color="red" from="E0" to="E0" />
    <trip id="b.0" type="IDM" depart="0.00" departPos="960.00" departSpeed="20.00" color="green" from="E0" to="E0"/>
    <trip id="b.1" type="IDM" depart="0.00" departPos="920.00" departSpeed="20.00" color="green" from="E0" to="E0"/>
    <trip id="b.2" type="IDM" depart="0.00" departPos="880.00" departSpeed="20.00" color="green" from="E0" to="E0"/>
    <trip id="b.3" type="LPleader" depart="0.00" departPos="840.00" departSpeed="20.00" color="green" from="E0" to="E0"/>
    <trip id="b.4" type="IDM" depart="0.00" departPos="800.00" departSpeed="20.00" color="green" from="E0" to="E0"/>
    <trip id="b.5" type="IDM" depart="0.00" departPos="760.00" departSpeed="20.00" color="green" from="E0" to="E0"/>
    <trip id="b.6" type="IDM" depart="0.00" departPos="720.00" departSpeed="20.00" color="green" from="E0" to="E0"/>
    <trip id="b.7" type="IDM" depart="0.00" departPos="680.00" departSpeed="20.00" color="green" from="E0" to="E0"/>
    <trip id="c.0" type="LPleader" depart="0.00" departPos="640.00" departSpeed="20.00" color="green" from="E0" to="E0"/>
    <trip id="c.1" type="IDM" depart="0.00" departPos="600.00" departSpeed="20.00" color="green" from="E0" to="E0"/>
    <trip id="c.2" type="IDM" depart="0.00" departPos="560.00" departSpeed="20.00" color="green" from="E0" to="E0"/>
    <trip id="c.3" type="IDM" depart="0.00" departPos="520.00" departSpeed="20.00" color="green" from="E0" to="E0"/>
    <trip id="c.4" type="LPleader" depart="0.00" departPos="480.00" departSpeed="20.00" color="green" from="E0" to="E0"/>
    <trip id="c.5" type="IDM" depart="0.00" departPos="440.00" departSpeed="20.00" color="green" from="E0" to="E0"/>
    <trip id="c.6" type="IDM" depart="0.00" departPos="400.00" departSpeed="20.00" color="green" from="E0" to="E0"/>
    <trip id="c.7" type="IDM" depart="0.00" departPos="360.00" departSpeed="20.00" color="green" from="E0" to="E0"/>

</routes>
